Version 4
SHEET 1 1620 680
WIRE 32 -432 16 -432
WIRE 96 -432 32 -432
WIRE 224 -432 176 -432
WIRE 368 -432 288 -432
WIRE 16 -416 16 -432
WIRE 640 -352 640 -448
WIRE 640 -352 592 -352
WIRE 672 -352 640 -352
WIRE 784 -352 784 -448
WIRE 784 -352 736 -352
WIRE 800 -352 784 -352
WIRE 928 -352 800 -352
WIRE 1152 -352 928 -352
WIRE 1168 -352 1152 -352
WIRE 16 -336 16 -352
WIRE 800 -336 800 -352
WIRE 368 -304 320 -304
WIRE -256 -272 -352 -272
WIRE -176 -272 -256 -272
WIRE -32 -272 -176 -272
WIRE 224 -272 -32 -272
WIRE 336 -272 224 -272
WIRE 368 -272 336 -272
WIRE 1024 -272 928 -272
WIRE 1040 -272 1024 -272
WIRE -256 -256 -256 -272
WIRE -176 -256 -176 -272
WIRE 336 -256 336 -272
WIRE 800 -256 800 -272
WIRE -352 -240 -352 -272
WIRE 224 -224 224 -272
WIRE 656 -224 592 -224
WIRE 656 -208 656 -224
WIRE 48 -192 -32 -192
WIRE 160 -192 128 -192
WIRE 176 -192 160 -192
WIRE -256 -176 -256 -192
WIRE -176 -176 -176 -192
WIRE 224 -144 224 -160
WIRE 224 -144 176 -144
WIRE 240 -144 224 -144
WIRE 336 -144 336 -176
WIRE 368 -144 336 -144
WIRE 176 -128 176 -144
WIRE 240 -128 240 -144
WIRE 240 -64 176 -64
WIRE 336 -64 240 -64
WIRE 256 16 240 16
WIRE 288 16 256 16
WIRE 432 32 336 32
WIRE 544 32 512 32
WIRE 608 32 544 32
WIRE 624 32 608 32
WIRE 544 48 544 32
WIRE 544 128 544 112
WIRE 720 304 672 304
WIRE 736 304 720 304
WIRE 464 320 448 320
WIRE 512 320 464 320
WIRE 944 336 672 336
WIRE 304 352 208 352
WIRE 464 352 304 352
WIRE 512 352 464 352
WIRE 944 352 944 336
WIRE 304 368 304 352
WIRE 832 368 672 368
WIRE 512 384 400 384
WIRE 720 400 672 400
WIRE 768 400 720 400
WIRE 464 416 448 416
WIRE 512 416 464 416
WIRE 736 432 672 432
WIRE 768 432 736 432
WIRE 944 432 944 416
WIRE 208 448 208 432
WIRE 304 448 304 432
WIRE 400 448 400 384
WIRE 400 448 304 448
WIRE 208 528 208 512
WIRE 304 528 304 448
WIRE 304 528 208 528
FLAG -352 -160 0
FLAG -32 -112 0
FLAG 160 -192 UVLO
FLAG 736 432 UVLO
FLAG 256 16 OUT
FLAG 336 112 0
FLAG 544 128 0
FLAG 608 32 CS
FLAG 720 400 CS
FLAG 464 416 OUT
FLAG 320 -304 0
FLAG 16 -336 0
FLAG 32 -432 VCC
FLAG 720 304 VCC
FLAG 656 -208 0
FLAG 800 -256 0
FLAG 928 -192 0
FLAG 1024 -272 FB
FLAG 1168 -272 0
FLAG 1152 -352 VOUT
FLAG -256 -272 VIN
FLAG 464 320 VIN
FLAG 464 352 FB
FLAG 832 448 0
FLAG 944 432 0
FLAG -256 -176 0
FLAG -176 -176 0
SYMBOL LM5020 592 368 R0
SYMATTR InstName U1
SYMBOL voltage -352 -256 R0
WINDOW 123 0 0 Left 0
WINDOW 39 0 0 Left 0
WINDOW 3 -206 129 Left 2
SYMATTR Value PWL(0 0 0.1m 0 0.3m 50 4.2m 50)
SYMATTR InstName V1
SYMBOL res -48 -288 R0
SYMATTR InstName R1
SYMATTR Value 61.9k
SYMBOL res -48 -208 R0
SYMATTR InstName R2
SYMATTR Value 2.87k
SYMBOL res 144 -208 R90
WINDOW 0 0 56 VBottom 2
WINDOW 3 32 56 VTop 2
SYMATTR InstName R3
SYMATTR Value 1k
SYMBOL nmos 288 -64 R0
SYMATTR InstName M1
SYMATTR Value QS8M51_N
SYMBOL ind 352 -160 R180
WINDOW 0 36 80 Left 2
WINDOW 3 36 40 Left 2
SYMATTR InstName L2
SYMATTR Value 90µ
SYMBOL res 320 -160 R0
SYMATTR InstName R4
SYMATTR Value 0.02
SYMBOL res 528 16 R90
WINDOW 0 0 56 VBottom 2
WINDOW 3 32 56 VTop 2
SYMATTR InstName R5
SYMATTR Value 100
SYMBOL res 320 16 R0
SYMATTR InstName R6
SYMATTR Value 0.235
SYMBOL cap 528 48 R0
SYMATTR InstName C1
SYMATTR Value 1000p
SYMBOL diode 288 -448 R90
WINDOW 0 0 32 VBottom 2
WINDOW 3 32 32 VTop 2
SYMATTR InstName D1
SYMATTR Value 1N4148
SYMBOL res 192 -448 R90
WINDOW 0 0 56 VBottom 2
WINDOW 3 32 56 VTop 2
SYMATTR InstName R7
SYMATTR Value 20
SYMBOL cap 0 -416 R0
SYMATTR InstName C2
SYMATTR Value 1µ
SYMBOL cap 784 -336 R0
SYMATTR InstName C3
SYMATTR Value 470µ
SYMBOL res 912 -368 R0
SYMATTR InstName R8
SYMATTR Value 11k
SYMBOL res 912 -288 R0
SYMATTR InstName R9
SYMATTR Value 1k
SYMBOL res 1152 -368 R0
SYMATTR InstName R11
SYMATTR Value {RLoad}
SYMBOL res 816 352 R0
SYMATTR InstName R12
SYMATTR Value 12.4k
SYMBOL cap 928 352 R0
SYMATTR InstName C4
SYMATTR Value 1n
SYMBOL cap 288 368 R0
SYMATTR InstName C5
SYMATTR Value 220p
SYMBOL cap 192 448 R0
SYMATTR InstName C6
SYMATTR Value 3300p
SYMBOL res 192 336 R0
SYMATTR InstName R13
SYMATTR Value 15k
SYMBOL TransformerAux 480 -288 R0
SYMATTR InstName U2
SYMBOL schottky 672 -336 R270
WINDOW 0 32 32 VTop 2
WINDOW 3 0 32 VBottom 2
SYMATTR InstName D2
SYMATTR Value MBR745
SYMATTR Description Diode
SYMATTR Type diode
SYMBOL cap -272 -256 R0
SYMATTR InstName C7
SYMATTR Value 2.2µ
SYMATTR SpiceLine V=50 Irms=0 Rser=0.00377371 Lser=419.292p mfg="Würth Elektronik" pn="885012210032 WCAP-CSGP 1812" type="X7R"
SYMBOL cap -192 -256 R0
SYMATTR InstName C8
SYMATTR Value 2.2µ
SYMATTR SpiceLine V=50 Irms=0 Rser=0.00377371 Lser=419.292p mfg="Würth Elektronik" pn="885012210032 WCAP-CSGP 1812" type="X7R"
SYMBOL res 736 -464 R90
WINDOW 0 0 56 VBottom 2
WINDOW 3 32 56 VTop 2
SYMATTR InstName R14
SYMATTR Value 10
SYMBOL cap 720 -432 R270
WINDOW 0 32 32 VTop 2
WINDOW 3 0 32 VBottom 2
SYMATTR InstName C9
SYMATTR Value 680p
SYMATTR SpiceLine V=50 Irms=0 Rser=0.24191 Lser=357.63p mfg="Würth Elektronik" pn="885012207085 WCAP-CSGP 0805" type="X7R"
SYMBOL diode 192 -64 R180
WINDOW 0 24 64 Left 2
WINDOW 3 24 0 Left 2
SYMATTR InstName D3
SYMATTR Value 1N4148
SYMBOL diode 256 -64 R180
WINDOW 0 24 64 Left 2
WINDOW 3 85 -24 Left 2
SYMATTR InstName D4
SYMATTR Value 1N4148
SYMBOL schottky 208 -224 R0
SYMATTR InstName D5
SYMATTR Value MBR745
SYMATTR Description Diode
SYMATTR Type diode
TEXT 944 80 Left 2 !.tran 0 18m 8m
TEXT 864 160 Left 2 !*.step param RLoad 5 30 2.5
TEXT 872 208 Left 2 !.meas PIn AVG -V(VIN)*I(V1)
TEXT 872 232 Left 2 !.meas POut AVG V(VOUT)*I(R11)
TEXT 872 256 Left 2 !.meas Efficiency PARAM POut/PIn
TEXT 872 280 Left 2 !.meas VOutRipple PP V(VOUT)
TEXT 1304 152 Left 2 !*.step param VINV 42 57 3
TEXT 880 120 Left 2 !.param RLoad 5
