Version 4
SHEET 1 3444 712
WIRE 912 -304 752 -304
WIRE 752 -256 752 -304
WIRE 832 -256 816 -256
WIRE 864 -256 832 -256
WIRE 912 -192 912 -304
WIRE 992 -192 976 -192
WIRE 752 -160 752 -256
WIRE 832 -160 832 -256
WIRE 912 -96 912 -192
WIRE 992 -96 992 -192
WIRE 752 -64 752 -160
WIRE 832 -64 816 -64
WIRE 992 -32 992 -96
WIRE 992 -32 896 -32
WIRE 752 32 752 -64
WIRE 752 32 720 32
WIRE 832 32 832 -64
WIRE 1072 48 1040 48
WIRE 1120 48 1072 48
WIRE 1264 48 1152 48
WIRE 832 80 832 32
WIRE 864 80 864 -256
WIRE 896 80 896 -32
WIRE 1040 80 1040 48
WIRE 1072 80 1072 48
WIRE 1120 80 1120 48
WIRE 1152 80 1152 48
WIRE 1424 96 1424 80
WIRE 96 144 0 144
WIRE 192 144 96 144
WIRE 288 144 192 144
WIRE 400 144 288 144
WIRE 480 144 400 144
WIRE 720 144 720 32
WIRE 720 144 480 144
WIRE 752 144 720 144
WIRE 480 160 480 144
WIRE 1424 176 1424 160
WIRE 1552 176 1424 176
WIRE 1584 176 1552 176
WIRE 752 192 720 192
WIRE 1264 192 1264 48
WIRE 1264 192 1232 192
WIRE 1344 192 1344 176
WIRE 1344 192 1264 192
WIRE 720 208 720 192
WIRE 96 224 0 224
WIRE 192 224 96 224
WIRE 288 224 192 224
WIRE 400 224 288 224
WIRE 480 224 400 224
WIRE 592 240 496 240
WIRE 752 240 592 240
WIRE 288 256 288 224
WIRE 1344 256 1232 256
WIRE 592 272 576 272
WIRE 752 272 592 272
WIRE 1344 272 1344 256
WIRE 1488 272 1424 272
WIRE 1520 272 1488 272
WIRE 1424 288 1424 272
WIRE 496 304 496 240
WIRE 576 304 576 272
WIRE 688 304 656 304
WIRE 752 304 688 304
WIRE 752 336 720 336
WIRE 720 352 720 336
WIRE 1520 352 1520 336
WIRE 1152 368 1152 352
WIRE 1424 368 1424 352
WIRE 864 384 864 352
WIRE 896 384 896 352
WIRE 896 384 864 384
WIRE 976 384 976 352
WIRE 1008 384 1008 352
WIRE 1008 384 976 384
WIRE 1040 384 1040 352
WIRE 1040 384 1008 384
WIRE 1072 384 1072 352
WIRE 1072 384 1040 384
WIRE 1104 384 1104 352
WIRE 1104 384 1072 384
WIRE 1040 416 1040 384
FLAG 288 336 0
FLAG 480 144 SIG
FLAG 576 384 0
FLAG 656 384 0
FLAG 592 272 V+
FLAG 688 304 DV-
FLAG 720 208 0
FLAG 720 352 0
FLAG 496 384 0
FLAG 592 240 V-
FLAG 1040 416 0
FLAG 944 352 DV-
FLAG 1552 176 OUT+
FLAG 1488 272 OUT-
FLAG 1424 80 0
FLAG 1424 368 0
FLAG 1584 112 0
FLAG 1520 352 0
FLAG 1152 448 0
SYMBOL current 96 144 R0
WINDOW 123 24 108 Left 2
WINDOW 39 0 0 Left 0
WINDOW 3 -24 309 Left 2
WINDOW 0 29 12 Left 2
SYMATTR Value PULSE(0 1.6m 1u 1n 0.8n 3.2n 4n 1)
SYMATTR InstName I1
SYMBOL voltage 288 240 R0
WINDOW 123 0 0 Left 0
WINDOW 39 0 0 Left 0
SYMATTR InstName V2
SYMATTR Value -27
SYMBOL cap 816 -80 R90
WINDOW 0 0 32 VBottom 2
WINDOW 3 60 29 VBottom 2
SYMATTR InstName C2
SYMATTR Value 18p
SYMBOL current 288 144 R0
WINDOW 123 -215 448 Left 2
WINDOW 39 0 0 Left 0
WINDOW 3 -217 422 Left 2
WINDOW 0 31 10 Left 2
SYMATTR Value2 AC 1u
SYMATTR Value PULSE(0 156.25u 0 1n 0.8n 3.2n 500n)
SYMATTR InstName I2
SYMBOL res 848 16 R90
WINDOW 0 0 56 VBottom 2
WINDOW 3 32 56 VTop 2
SYMATTR InstName R3
SYMATTR Value 6.98K
SYMBOL cap 464 160 R0
SYMATTR InstName C11
SYMATTR Value 48p
SYMBOL current 192 144 R0
WINDOW 0 27 10 Left 2
WINDOW 3 -119 362 Left 2
WINDOW 123 0 0 Left 0
WINDOW 39 0 0 Left 0
SYMATTR InstName I3
SYMATTR Value PULSE(0 20m 7u 1n 0.8n 12.8n 4n 4)
SYMBOL current 0 144 R0
WINDOW 3 -22 225 Left 2
WINDOW 123 0 0 Left 0
WINDOW 39 0 0 Left 0
SYMATTR Value PULSE(0 500u 4u 1n 0.8n 12.8n 0 1)
SYMATTR InstName I4
SYMBOL voltage 576 288 R0
WINDOW 123 0 0 Left 0
WINDOW 39 0 0 Left 0
SYMATTR InstName V1
SYMATTR Value 5
SYMBOL voltage 656 288 R0
WINDOW 123 0 0 Left 0
WINDOW 39 0 0 Left 0
WINDOW 0 33 30 Left 2
SYMATTR InstName V5
SYMATTR Value -6
SYMBOL voltage 496 288 R0
WINDOW 123 0 0 Left 0
WINDOW 39 0 0 Left 0
SYMATTR InstName V3
SYMATTR Value -5
SYMBOL current 400 144 R0
WINDOW 3 -300 488 Left 2
WINDOW 123 0 0 Left 0
WINDOW 39 0 0 Left 0
SYMATTR Value SINE(0 156n 2Meg 0 0)
SYMATTR InstName I5
SYMBOL cap 816 -272 R90
WINDOW 0 0 32 VBottom 2
WINDOW 3 60 29 VBottom 2
SYMATTR InstName C1
SYMATTR Value 32p
SYMBOL res 848 -176 R90
WINDOW 0 0 56 VBottom 2
WINDOW 3 32 56 VTop 2
SYMATTR InstName R1
SYMATTR Value 6.98K
SYMBOL cap 976 -208 R90
WINDOW 0 0 32 VBottom 2
WINDOW 3 60 29 VBottom 2
SYMATTR InstName C3
SYMATTR Value 24p
SYMBOL res 1008 -112 R90
WINDOW 0 0 56 VBottom 2
WINDOW 3 32 56 VTop 2
SYMATTR InstName R2
SYMATTR Value 6.98K
SYMBOL cap 1408 96 R0
SYMATTR InstName C4
SYMATTR Value 250p
SYMBOL cap 1408 288 R0
SYMATTR InstName C5
SYMATTR Value 250p
SYMBOL res 1440 160 R90
WINDOW 0 0 56 VBottom 2
WINDOW 3 32 56 VTop 2
SYMATTR InstName R4
SYMATTR Value 24.9
SYMBOL res 1440 256 R90
WINDOW 0 0 56 VBottom 2
WINDOW 3 32 56 VTop 2
SYMATTR InstName R5
SYMATTR Value 24.9
SYMBOL cap 1504 272 R0
SYMATTR InstName C6
SYMATTR Value 20p
SYMBOL cap 1568 112 R0
SYMATTR InstName C7
SYMATTR Value 20p
SYMBOL voltage 1152 352 R0
WINDOW 123 0 0 Left 0
WINDOW 39 0 0 Left 0
SYMATTR InstName V4
SYMATTR Value 2.048
SYMBOL OpAmps\\ADA4350 1008 224 R0
SYMATTR InstName U1
TEXT 168 536 Left 2 ;Pseudo dark noise current
TEXT 168 424 Left 2 ;160KeV event
TEXT 168 480 Left 2 ;2MeV event
TEXT 1264 -64 Left 2 !.tran 0 8u 7u
