Version 4
SHEET 1 3444 712
WIRE 624 -480 624 -592
WIRE 624 -480 592 -480
WIRE 688 -480 688 -592
WIRE 592 -464 592 -480
WIRE 688 -352 688 -480
WIRE 688 -352 672 -352
WIRE 912 -352 688 -352
WIRE 608 -256 608 -352
WIRE 704 -256 688 -256
WIRE 912 -256 912 -352
WIRE 912 -256 896 -256
WIRE 864 -64 864 -80
WIRE 608 -32 608 -256
WIRE 624 -32 608 -32
WIRE 832 -32 688 -32
WIRE 912 -16 912 -256
WIRE 912 -16 864 -16
WIRE 944 0 896 0
WIRE 1072 48 1040 48
WIRE 1120 48 1072 48
WIRE 1264 48 1152 48
WIRE 608 64 608 -32
WIRE 624 64 608 64
WIRE 832 64 832 -32
WIRE 832 64 704 64
WIRE 832 80 832 64
WIRE 864 80 864 -16
WIRE 896 80 896 0
WIRE 1040 80 1040 48
WIRE 1072 80 1072 48
WIRE 1120 80 1120 48
WIRE 1152 80 1152 48
WIRE 1424 96 1424 80
WIRE -384 144 -480 144
WIRE -288 144 -384 144
WIRE -192 144 -288 144
WIRE -96 144 -192 144
WIRE 96 144 -96 144
WIRE 256 144 96 144
WIRE 608 144 608 64
WIRE 608 144 448 144
WIRE 752 144 608 144
WIRE 96 160 96 144
WIRE 1424 176 1424 160
WIRE 1552 176 1424 176
WIRE 1584 176 1552 176
WIRE 1664 176 1584 176
WIRE 752 192 720 192
WIRE 1264 192 1264 48
WIRE 1264 192 1232 192
WIRE 1344 192 1344 176
WIRE 1344 192 1264 192
WIRE 256 208 192 208
WIRE 720 208 720 192
WIRE -384 224 -480 224
WIRE -288 224 -384 224
WIRE -192 224 -288 224
WIRE -96 224 -192 224
WIRE 96 224 -96 224
WIRE 592 240 496 240
WIRE 752 240 592 240
WIRE -96 256 -96 224
WIRE 192 256 192 208
WIRE 1344 256 1232 256
WIRE 592 272 576 272
WIRE 752 272 592 272
WIRE 1344 272 1344 256
WIRE 1488 272 1424 272
WIRE 1520 272 1488 272
WIRE 1616 272 1520 272
WIRE 1424 288 1424 272
WIRE 496 304 496 240
WIRE 576 304 576 272
WIRE 688 304 656 304
WIRE 752 304 688 304
WIRE 416 336 416 320
WIRE 752 336 720 336
WIRE 720 352 720 336
WIRE 1520 352 1520 336
WIRE 1152 368 1152 352
WIRE 1424 368 1424 352
WIRE 864 384 864 352
WIRE 896 384 896 352
WIRE 896 384 864 384
WIRE 976 384 976 352
WIRE 1008 384 1008 352
WIRE 1040 384 1040 352
WIRE 1040 384 1008 384
WIRE 1072 384 1072 352
WIRE 1072 384 1040 384
WIRE 1104 384 1104 352
WIRE 1104 384 1072 384
WIRE 944 416 944 352
WIRE 1008 416 1008 384
WIRE 1008 416 944 416
FLAG -96 336 0
FLAG 96 144 SIG
FLAG 576 384 0
FLAG 656 384 0
FLAG 592 272 V+
FLAG 688 304 DV-
FLAG 720 208 0
FLAG 720 352 0
FLAG 496 384 0
FLAG 592 240 V-
FLAG 976 384 0
FLAG 1008 416 DV-
FLAG 1552 176 OUT+
FLAG 1488 272 OUT-
FLAG 1424 80 0
FLAG 1424 368 0
FLAG 1584 112 0
FLAG 1520 352 0
FLAG 1152 448 0
FLAG 192 336 0
FLAG 48 -96 0
FLAG 800 -336 V+
FLAG 736 -80 V-
FLAG 864 -64 0
FLAG 288 320 V-
FLAG 416 336 0
FLAG 352 64 V+
FLAG 48 -176 IF
FLAG 704 -192 IF
FLAG 592 -464 0
FLAG 1664 96 0
FLAG 1616 352 0
SYMBOL current -288 144 R0
WINDOW 123 24 108 Left 2
WINDOW 39 0 0 Left 0
WINDOW 3 -24 309 Left 2
WINDOW 0 29 12 Left 2
SYMATTR Value PULSE(0 1.6m 1u 1n 0.8n 3.2n 4n 1)
SYMATTR InstName I1
SYMBOL voltage -96 240 R0
WINDOW 123 0 0 Left 0
WINDOW 39 0 0 Left 0
SYMATTR InstName V2
SYMATTR Value -27
SYMBOL cap 672 -368 R90
WINDOW 0 0 32 VBottom 2
WINDOW 3 60 29 VBottom 2
SYMATTR InstName C2
SYMATTR Value 32p
SYMBOL current -96 144 R0
WINDOW 123 -215 448 Left 2
WINDOW 39 0 0 Left 0
WINDOW 3 -217 422 Left 2
WINDOW 0 31 10 Left 2
SYMATTR Value2 AC 1u
SYMATTR Value PULSE(0 156.25u 0 1n 0.8n 3.2n 500n)
SYMATTR InstName I2
SYMBOL cap 80 160 R0
SYMATTR InstName C11
SYMATTR Value 48p
SYMBOL current -192 144 R0
WINDOW 0 27 10 Left 2
WINDOW 3 -119 362 Left 2
WINDOW 123 0 0 Left 0
WINDOW 39 0 0 Left 0
SYMATTR InstName I3
SYMATTR Value PULSE(0 20m 7u 1n 0.8n 3.2n 4n 4)
SYMBOL current -384 144 R0
WINDOW 3 543 306 Left 2
WINDOW 123 0 0 Left 0
WINDOW 39 0 0 Left 0
WINDOW 0 29 12 Left 2
SYMATTR Value PULSE(0 500u 4u 1n 0.8n 12.8n 0 1)
SYMATTR InstName I4
SYMBOL voltage 576 288 R0
WINDOW 123 0 0 Left 0
WINDOW 39 0 0 Left 0
SYMATTR InstName V1
SYMATTR Value 5
SYMBOL voltage 656 288 R0
WINDOW 123 0 0 Left 0
WINDOW 39 0 0 Left 0
WINDOW 0 33 30 Left 2
SYMATTR InstName V5
SYMATTR Value -5
SYMBOL voltage 496 288 R0
WINDOW 123 0 0 Left 0
WINDOW 39 0 0 Left 0
SYMATTR InstName V3
SYMATTR Value -5
SYMBOL current -592 144 R0
WINDOW 3 -325 470 Left 2
WINDOW 123 0 0 Left 0
WINDOW 39 0 0 Left 0
WINDOW 0 34 14 Left 2
SYMATTR Value SINE(0 156n 2Meg 0 0)
SYMATTR InstName I5
SYMBOL cap 1408 96 R0
SYMATTR InstName C4
SYMATTR Value 250p
SYMBOL cap 1408 288 R0
SYMATTR InstName C5
SYMATTR Value 250p
SYMBOL res 1440 160 R90
WINDOW 0 0 56 VBottom 2
WINDOW 3 32 56 VTop 2
SYMATTR InstName R4
SYMATTR Value 24.9
SYMBOL res 1440 256 R90
WINDOW 0 0 56 VBottom 2
WINDOW 3 32 56 VTop 2
SYMATTR InstName R5
SYMATTR Value 24.9
SYMBOL cap 1504 272 R0
SYMATTR InstName C6
SYMATTR Value 20p
SYMBOL cap 1568 112 R0
SYMATTR InstName C7
SYMATTR Value 20p
SYMBOL voltage 1152 352 R0
WINDOW 123 24 124 Left 2
WINDOW 39 0 0 Left 0
SYMATTR Value2 AC 6000n
SYMATTR InstName V4
SYMATTR Value 2.048
SYMBOL OpAmps\\ADA4350 1008 224 R0
SYMATTR InstName U1
SYMBOL current -480 144 R0
WINDOW 123 0 0 Left 0
WINDOW 39 0 0 Left 0
WINDOW 0 30 14 Left 2
WINDOW 3 636 367 Left 2
SYMATTR InstName I6
SYMATTR Value PULSE(0 14.2m 14u 1n 0.8n 3.2n 0 1)
SYMBOL voltage 192 240 R0
WINDOW 3 -34 -255 Left 2
WINDOW 123 0 0 Left 0
WINDOW 39 0 0 Left 0
SYMATTR Value PULSE(0 5 0 1p 1p 50n 125n)
SYMATTR InstName V6
SYMBOL voltage 48 -192 R0
WINDOW 3 -154 126 Left 2
WINDOW 123 0 0 Left 0
WINDOW 39 0 0 Left 0
SYMATTR Value PULSE(0 5 60n 1p 1p 50n 125n)
SYMATTR InstName V7
SYMBOL res 704 -272 R90
WINDOW 0 0 56 VBottom 2
WINDOW 3 32 56 VTop 2
SYMATTR InstName R6
SYMATTR Value 3.49K
SYMBOL Switches\\ADG612 800 -208 R0
SYMATTR InstName U6
SYMBOL Switches\\ADG612 352 192 R0
SYMATTR InstName U7
SYMBOL cap 688 -48 R90
WINDOW 0 0 32 VBottom 2
WINDOW 3 60 29 VBottom 2
SYMATTR InstName C1
SYMATTR Value 3p
SYMBOL res 720 48 R90
WINDOW 0 0 56 VBottom 2
WINDOW 3 32 56 VTop 2
SYMATTR InstName R1
SYMATTR Value 3.49K
SYMBOL cap 688 -496 R90
WINDOW 0 0 32 VBottom 2
WINDOW 3 32 32 VTop 2
SYMATTR InstName C3
SYMATTR Value 32p
SYMBOL cap 688 -608 R90
WINDOW 0 0 32 VBottom 2
WINDOW 3 32 32 VTop 2
SYMATTR InstName C8
SYMATTR Value 32p
SYMBOL res 1600 256 R0
SYMATTR InstName R2
SYMATTR Value 1K
SYMBOL res 1648 80 R0
SYMATTR InstName R3
SYMATTR Value 1K
TEXT -312 536 Left 2 ;I2, I5: Pseudo dark noise current
TEXT -312 432 Left 2 ;I1: 1us, 160KeV
TEXT -312 480 Left 2 ;I3: 7us, 2MeV
TEXT 720 552 Left 2 ;Events calculated from ideal photoelectric absorption\n with LYSO scint crystal at 33,200 photon/MeV
TEXT -280 48 Left 2 !.tran 20u
TEXT 160 424 Left 2 ;I4: 4us, 50KeV
TEXT 160 480 Left 2 ;I6: 14us, 1.51MeV
