Version 4
SHEET 1 2152 1316
WIRE 1648 0 1456 0
WIRE 1824 0 1648 0
WIRE 1616 48 1600 48
WIRE 1696 48 1680 48
WIRE 1600 96 1600 48
WIRE 1696 96 1696 48
WIRE 1456 128 1456 0
WIRE 1456 128 1392 128
WIRE 1824 128 1824 0
WIRE 1856 128 1824 128
WIRE 1392 144 1392 128
WIRE 1856 144 1856 128
WIRE 1456 160 1456 128
WIRE 1504 160 1456 160
WIRE 1824 160 1824 128
WIRE 1824 160 1792 160
WIRE 1392 224 1392 208
WIRE 1856 224 1856 208
WIRE 1120 256 1088 256
WIRE 1168 256 1120 256
WIRE 1424 256 1168 256
WIRE 1504 256 1424 256
WIRE 1888 256 1792 256
WIRE 2000 256 1888 256
WIRE 2080 256 2000 256
WIRE 2096 256 2080 256
WIRE 1088 272 1088 256
WIRE 1168 272 1168 256
WIRE 1424 272 1424 256
WIRE 1888 272 1888 256
WIRE 2000 272 2000 256
WIRE 2096 272 2096 256
WIRE 1168 352 1168 336
WIRE 1424 352 1424 336
WIRE 1504 352 1472 352
WIRE 1888 352 1792 352
WIRE 2000 352 2000 336
WIRE 2000 352 1888 352
WIRE 2096 352 2096 336
WIRE 1280 400 1248 400
WIRE 1312 400 1280 400
WIRE 1472 400 1472 352
WIRE 1472 400 1392 400
WIRE 2000 416 2000 352
WIRE 1504 448 1472 448
WIRE 1872 448 1792 448
WIRE 1872 464 1872 448
WIRE 1360 480 1328 480
WIRE 1392 480 1360 480
WIRE 1472 480 1472 448
WIRE 1504 544 1472 544
WIRE 1824 544 1792 544
WIRE 1872 544 1872 528
WIRE 1872 544 1824 544
WIRE 2000 544 2000 496
WIRE 2000 544 1872 544
WIRE 1472 560 1472 544
WIRE 1872 560 1872 544
WIRE 1824 576 1824 544
WIRE 2000 592 2000 544
WIRE 1504 640 1440 640
WIRE 1872 640 1872 624
WIRE 1872 640 1792 640
WIRE 1440 656 1440 640
WIRE 1440 736 1440 720
WIRE 1504 736 1440 736
WIRE 1888 736 1792 736
WIRE 2000 736 2000 672
WIRE 2000 736 1888 736
WIRE 2000 752 2000 736
WIRE 1392 832 1296 832
WIRE 1424 832 1392 832
WIRE 1504 832 1424 832
WIRE 1888 832 1888 816
WIRE 1888 832 1792 832
WIRE 2000 832 2000 816
WIRE 2000 832 1888 832
WIRE 2080 832 2000 832
WIRE 2096 832 2080 832
WIRE 1424 848 1424 832
WIRE 2096 848 2096 832
WIRE 1424 928 1424 912
WIRE 1648 928 1648 896
WIRE 2096 928 2096 912
WIRE 1808 1040 1728 1040
WIRE 1904 1040 1808 1040
WIRE 2032 1040 1904 1040
WIRE 2064 1040 2032 1040
WIRE 1728 1056 1728 1040
WIRE 1728 1056 1680 1056
WIRE 1808 1056 1808 1040
WIRE 1904 1056 1904 1040
WIRE 2064 1056 2064 1040
WIRE 1680 1072 1680 1056
WIRE 1680 1072 1664 1072
WIRE 1296 1088 1296 832
WIRE 1312 1088 1296 1088
WIRE 1440 1088 1312 1088
WIRE 1472 1088 1440 1088
WIRE 1312 1104 1312 1088
WIRE 1680 1104 1664 1104
WIRE 1472 1120 1456 1120
WIRE 1680 1120 1680 1104
WIRE 1728 1120 1680 1120
WIRE 1728 1136 1728 1120
WIRE 1808 1136 1728 1136
WIRE 1904 1136 1904 1120
WIRE 1440 1152 1440 1088
WIRE 1472 1152 1440 1152
WIRE 2064 1168 2064 1136
WIRE 1312 1184 1312 1168
WIRE 1472 1184 1344 1184
WIRE 1696 1200 1664 1200
WIRE 1344 1216 1344 1184
WIRE 1696 1232 1696 1200
WIRE 1808 1232 1808 1216
WIRE 1456 1248 1456 1120
WIRE 1344 1296 1344 1280
FLAG 1088 352 0
FLAG 1168 352 0
FLAG 1424 352 0
FLAG 1392 224 0
FLAG 1120 256 VIN_P
FLAG 1280 400 VIN_P
FLAG 1360 480 VIN_P
FLAG 1472 560 0
FLAG 1648 1008 0
FLAG 1824 576 0
FLAG 1424 928 0
FLAG 1392 832 VOUT-
FLAG 2096 928 0
FLAG 2096 352 0
FLAG 1856 224 0
FLAG 1648 0 VOUT+
FLAG 2080 256 LDO+
FLAG 2080 832 LDO-
FLAG 2064 1248 0
FLAG 1696 1232 0
FLAG 1312 1184 0
FLAG 1456 1248 0
FLAG 1344 1296 0
FLAG 1808 1232 0
FLAG 1904 1136 0
FLAG 2032 1040 Vbias
SYMBOL PowerProducts\\LTC3265 1648 496 R0
SYMATTR InstName U2
SYMBOL cap 1680 32 R90
WINDOW 0 0 32 VBottom 2
WINDOW 3 32 32 VTop 2
SYMATTR InstName C6
SYMATTR Value 1µ
SYMATTR SpiceLine V=25 Irms=0 Rser=0 Lser=0 mfg="Murata" pn="GCM21BR71E105MA56" type="X7R"
SYMBOL voltage 1088 256 R0
WINDOW 3 -173 155 Left 2
WINDOW 123 0 0 Left 0
WINDOW 39 -258 81 Left 2
SYMATTR Value PWL(0 0 10u 0 100u 15)
SYMATTR SpiceLine Rser=1m Cpar=1p
SYMATTR InstName V2
SYMBOL cap 1152 272 R0
SYMATTR InstName C7
SYMATTR Value 10µ
SYMATTR SpiceLine V=25 Irms=0 Rser=0.001 Lser=0 mfg="TDK" pn="C575OX7RIE106M" type="X7R"
SYMBOL cap 1408 272 R0
SYMATTR InstName C9
SYMATTR Value 10µ
SYMATTR SpiceLine V=25 Irms=0 Rser=0.001 Lser=0 mfg="TDK" pn="C575OX7RIE106M" type="X7R"
SYMBOL res 1408 384 R90
WINDOW 0 0 56 VBottom 2
WINDOW 3 32 56 VTop 2
SYMATTR InstName R5
SYMATTR Value 1Meg
SYMBOL res 1488 464 R90
WINDOW 0 0 56 VBottom 2
WINDOW 3 32 56 VTop 2
SYMATTR InstName R11
SYMATTR Value 1Meg
SYMBOL cap 1424 656 R0
SYMATTR InstName C11
SYMATTR Value 1µ
SYMATTR SpiceLine V=50 Irms=0 Rser=0.008 Lser=0 mfg="TDK" pn="C3225X7RlHlO5M" type="X7R"
SYMBOL cap 2080 848 R0
SYMATTR InstName C13
SYMATTR Value 10µ
SYMATTR SpiceLine V=50 Irms=0 Rser=0.00342327 Lser=799p mfg="Würth Elektronik" pn="885012108022 WCAP-CSGP 1206" type="X5R"
SYMBOL res 1872 720 R0
SYMATTR InstName R13
SYMATTR Value 165k
SYMBOL cap 1984 752 R0
SYMATTR InstName C14
SYMATTR Value 10p
SYMATTR SpiceLine V=50 Irms=0 Rser=0 Lser=0 mfg="Murata" pn="GCM1555C1H100JA16" type="C0G"
SYMBOL cap 1856 560 R0
SYMATTR InstName C15
SYMATTR Value 0.1µ
SYMATTR SpiceLine V=16 Irms=0 Rser=0 Lser=0 mfg="Murata" pn="GCM155R71C104KA55" type="X7R"
SYMBOL cap 1856 464 R0
SYMATTR InstName C16
SYMATTR Value 0.1µ
SYMATTR SpiceLine V=16 Irms=0 Rser=0 Lser=0 mfg="Murata" pn="GCM155R71C104KA55" type="X7R"
SYMBOL res 1984 576 R0
SYMATTR InstName R14
SYMATTR Value 52.3k
SYMBOL res 1984 400 R0
SYMATTR InstName R15
SYMATTR Value 52.3k
SYMBOL res 1872 256 R0
SYMATTR InstName R16
SYMATTR Value 165k
SYMBOL cap 1984 272 R0
SYMATTR InstName C17
SYMATTR Value 10p
SYMATTR SpiceLine V=50 Irms=0 Rser=0 Lser=0 mfg="Murata" pn="GCM1555C1H100JA16" type="C0G"
SYMBOL cap 2080 272 R0
SYMATTR InstName C18
SYMATTR Value 10µ
SYMATTR SpiceLine V=50 Irms=0 Rser=0.00342327 Lser=799p mfg="Würth Elektronik" pn="885012108022 WCAP-CSGP 1206" type="X5R"
SYMBOL current 2064 1248 R180
WINDOW 123 0 0 Left 0
WINDOW 39 0 0 Left 0
SYMATTR InstName I1
SYMATTR Value 0.001
SYMBOL TPS7A3001 1568 1136 R0
SYMATTR InstName U1
SYMBOL cap 1296 1104 R0
SYMATTR InstName C1
SYMATTR Value 10µ
SYMATTR SpiceLine V=35 Irms=0 Rser=0 Lser=0 mfg="Murata" pn="GRM188R6YA106MA73" type="X5R"
SYMBOL cap 1328 1216 R0
SYMATTR InstName C2
SYMATTR Value 0.01µ
SYMATTR SpiceLine V=10 Irms=0 Rser=0 Lser=0 mfg="Murata" pn="GCM033R71A103KA03" type="X7R"
SYMBOL cap 1712 1056 R0
SYMATTR InstName C3
SYMATTR Value 0.01µ
SYMATTR SpiceLine V=50 Irms=0 Rser=0 Lser=0 mfg="Murata" pn="GCM155R71H103KA55" type="X7R"
SYMBOL res 1792 1040 R0
SYMATTR InstName R1
SYMATTR Value 224k
SYMBOL res 1792 1120 R0
SYMATTR InstName R2
SYMATTR Value 10k
SYMBOL cap 1888 1056 R0
SYMATTR InstName C4
SYMATTR Value 10µ
SYMATTR SpiceLine V=35 Irms=0 Rser=0 Lser=0 mfg="Murata" pn="GRM188R6YA106MA73" type="X5R"
SYMBOL res 1632 912 R0
SYMATTR InstName R3
SYMATTR Value 1k
SYMBOL cap 1408 848 R0
SYMATTR InstName C5
SYMATTR Value 10µ
SYMATTR SpiceLine V=35 Irms=0 Rser=0 Lser=0 mfg="Murata" pn="GRM188R6YA106MA73" type="X5R"
SYMBOL cap 1840 144 R0
SYMATTR InstName C8
SYMATTR Value 10µ
SYMATTR SpiceLine V=35 Irms=0 Rser=0 Lser=0 mfg="Murata" pn="GRM188R6YA106MA73" type="X5R"
SYMBOL cap 1376 144 R0
SYMATTR InstName C10
SYMATTR Value 10µ
SYMATTR SpiceLine V=35 Irms=0 Rser=0 Lser=0 mfg="Murata" pn="GRM188R6YA106MA73" type="X5R"
SYMBOL res 2048 1040 R0
SYMATTR InstName R4
SYMATTR Value 50
TEXT 912 952 Left 2 !.tran 0 50m 35m startup
TEXT 904 480 Left 2 !.meas Pin AVG -V(VIN_P)*I(V2)
TEXT 904 504 Left 2 !.meas Pout AVG V(VOUT-)*I(I1)
TEXT 904 456 Left 2 !*.step param Iload 0.0001 0.02 0.001
TEXT 904 528 Left 2 !.meas Eff param Pout/Pin
TEXT 904 552 Left 2 !.meas VoutNRipple PP V(VOUT-)
TEXT 904 576 Left 2 !.meas VbiasRipple PP V(Vbias)
TEXT 904 600 Left 2 !.meas LDOPRipple PP V(LDO+)
TEXT 904 624 Left 2 !.meas LDONRipple PP V(LDO-)
